
#======================================================================
# CRYSTAL DATA
#----------------------------------------------------------------------
data_VESTA_phase_1

_chemical_name_common                  'Al2.67 O4'
_cell_length_a                         7.93820(10)
_cell_length_b                         7.93820(10)
_cell_length_c                         7.93820(10)
_cell_angle_alpha                      90.000000
_cell_angle_beta                       90.000000
_cell_angle_gamma                      90.000000
_cell_volume                           500.225825
_space_group_name_H-M_alt              'F d -3 m'
_space_group_IT_number                 227

loop_
_space_group_symop_operation_xyz
   'x, y, z'
   '-x, -y, -z'
   '-x+3/4, -y+1/4, z+1/2'
   'x+1/4, y+3/4, -z+1/2'
   '-x+1/4, y+1/2, -z+3/4'
   'x+3/4, -y+1/2, z+1/4'
   'x+1/2, -y+3/4, -z+1/4'
   '-x+1/2, y+1/4, z+3/4'
   'z, x, y'
   '-z, -x, -y'
   'z+1/2, -x+3/4, -y+1/4'
   '-z+1/2, x+1/4, y+3/4'
   '-z+3/4, -x+1/4, y+1/2'
   'z+1/4, x+3/4, -y+1/2'
   '-z+1/4, x+1/2, -y+3/4'
   'z+3/4, -x+1/2, y+1/4'
   'y, z, x'
   '-y, -z, -x'
   '-y+1/4, z+1/2, -x+3/4'
   'y+3/4, -z+1/2, x+1/4'
   'y+1/2, -z+3/4, -x+1/4'
   '-y+1/2, z+1/4, x+3/4'
   '-y+3/4, -z+1/4, x+1/2'
   'y+1/4, z+3/4, -x+1/2'
   'y+3/4, x+1/4, -z+1/2'
   '-y+1/4, -x+3/4, z+1/2'
   '-y, -x, -z'
   'y, x, z'
   'y+1/4, -x+1/2, z+3/4'
   '-y+3/4, x+1/2, -z+1/4'
   '-y+1/2, x+3/4, z+1/4'
   'y+1/2, -x+1/4, -z+3/4'
   'x+3/4, z+1/4, -y+1/2'
   '-x+1/4, -z+3/4, y+1/2'
   '-x+1/2, z+3/4, y+1/4'
   'x+1/2, -z+1/4, -y+3/4'
   '-x, -z, -y'
   'x, z, y'
   'x+1/4, -z+1/2, y+3/4'
   '-x+3/4, z+1/2, -y+1/4'
   'z+3/4, y+1/4, -x+1/2'
   '-z+1/4, -y+3/4, x+1/2'
   'z+1/4, -y+1/2, x+3/4'
   '-z+3/4, y+1/2, -x+1/4'
   '-z+1/2, y+3/4, x+1/4'
   'z+1/2, -y+1/4, -x+3/4'
   '-z, -y, -x'
   'z, y, x'
   'x, y+1/2, z+1/2'
   '-x, -y+1/2, -z+1/2'
   '-x+3/4, -y+3/4, z'
   'x+1/4, y+1/4, -z'
   '-x+1/4, y, -z+1/4'
   'x+3/4, -y, z+3/4'
   'x+1/2, -y+1/4, -z+3/4'
   '-x+1/2, y+3/4, z+1/4'
   'z, x+1/2, y+1/2'
   '-z, -x+1/2, -y+1/2'
   'z+1/2, -x+1/4, -y+3/4'
   '-z+1/2, x+3/4, y+1/4'
   '-z+3/4, -x+3/4, y'
   'z+1/4, x+1/4, -y'
   '-z+1/4, x, -y+1/4'
   'z+3/4, -x, y+3/4'
   'y, z+1/2, x+1/2'
   '-y, -z+1/2, -x+1/2'
   '-y+1/4, z, -x+1/4'
   'y+3/4, -z, x+3/4'
   'y+1/2, -z+1/4, -x+3/4'
   '-y+1/2, z+3/4, x+1/4'
   '-y+3/4, -z+3/4, x'
   'y+1/4, z+1/4, -x'
   'y+3/4, x+3/4, -z'
   '-y+1/4, -x+1/4, z'
   '-y, -x+1/2, -z+1/2'
   'y, x+1/2, z+1/2'
   'y+1/4, -x, z+1/4'
   '-y+3/4, x, -z+3/4'
   '-y+1/2, x+1/4, z+3/4'
   'y+1/2, -x+3/4, -z+1/4'
   'x+3/4, z+3/4, -y'
   '-x+1/4, -z+1/4, y'
   '-x+1/2, z+1/4, y+3/4'
   'x+1/2, -z+3/4, -y+1/4'
   '-x, -z+1/2, -y+1/2'
   'x, z+1/2, y+1/2'
   'x+1/4, -z, y+1/4'
   '-x+3/4, z, -y+3/4'
   'z+3/4, y+3/4, -x'
   '-z+1/4, -y+1/4, x'
   'z+1/4, -y, x+1/4'
   '-z+3/4, y, -x+3/4'
   '-z+1/2, y+1/4, x+3/4'
   'z+1/2, -y+3/4, -x+1/4'
   '-z, -y+1/2, -x+1/2'
   'z, y+1/2, x+1/2'
   'x+1/2, y, z+1/2'
   '-x+1/2, -y, -z+1/2'
   '-x+1/4, -y+1/4, z'
   'x+3/4, y+3/4, -z'
   '-x+3/4, y+1/2, -z+1/4'
   'x+1/4, -y+1/2, z+3/4'
   'x, -y+3/4, -z+3/4'
   '-x, y+1/4, z+1/4'
   'z+1/2, x, y+1/2'
   '-z+1/2, -x, -y+1/2'
   'z, -x+3/4, -y+3/4'
   '-z, x+1/4, y+1/4'
   '-z+1/4, -x+1/4, y'
   'z+3/4, x+3/4, -y'
   '-z+3/4, x+1/2, -y+1/4'
   'z+1/4, -x+1/2, y+3/4'
   'y+1/2, z, x+1/2'
   '-y+1/2, -z, -x+1/2'
   '-y+3/4, z+1/2, -x+1/4'
   'y+1/4, -z+1/2, x+3/4'
   'y, -z+3/4, -x+3/4'
   '-y, z+1/4, x+1/4'
   '-y+1/4, -z+1/4, x'
   'y+3/4, z+3/4, -x'
   'y+1/4, x+1/4, -z'
   '-y+3/4, -x+3/4, z'
   '-y+1/2, -x, -z+1/2'
   'y+1/2, x, z+1/2'
   'y+3/4, -x+1/2, z+1/4'
   '-y+1/4, x+1/2, -z+3/4'
   '-y, x+3/4, z+3/4'
   'y, -x+1/4, -z+1/4'
   'x+1/4, z+1/4, -y'
   '-x+3/4, -z+3/4, y'
   '-x, z+3/4, y+3/4'
   'x, -z+1/4, -y+1/4'
   '-x+1/2, -z, -y+1/2'
   'x+1/2, z, y+1/2'
   'x+3/4, -z+1/2, y+1/4'
   '-x+1/4, z+1/2, -y+3/4'
   'z+1/4, y+1/4, -x'
   '-z+3/4, -y+3/4, x'
   'z+3/4, -y+1/2, x+1/4'
   '-z+1/4, y+1/2, -x+3/4'
   '-z, y+3/4, x+3/4'
   'z, -y+1/4, -x+1/4'
   '-z+1/2, -y, -x+1/2'
   'z+1/2, y, x+1/2'
   'x+1/2, y+1/2, z'
   '-x+1/2, -y+1/2, -z'
   '-x+1/4, -y+3/4, z+1/2'
   'x+3/4, y+1/4, -z+1/2'
   '-x+3/4, y, -z+3/4'
   'x+1/4, -y, z+1/4'
   'x, -y+1/4, -z+1/4'
   '-x, y+3/4, z+3/4'
   'z+1/2, x+1/2, y'
   '-z+1/2, -x+1/2, -y'
   'z, -x+1/4, -y+1/4'
   '-z, x+3/4, y+3/4'
   '-z+1/4, -x+3/4, y+1/2'
   'z+3/4, x+1/4, -y+1/2'
   '-z+3/4, x, -y+3/4'
   'z+1/4, -x, y+1/4'
   'y+1/2, z+1/2, x'
   '-y+1/2, -z+1/2, -x'
   '-y+3/4, z, -x+3/4'
   'y+1/4, -z, x+1/4'
   'y, -z+1/4, -x+1/4'
   '-y, z+3/4, x+3/4'
   '-y+1/4, -z+3/4, x+1/2'
   'y+3/4, z+1/4, -x+1/2'
   'y+1/4, x+3/4, -z+1/2'
   '-y+3/4, -x+1/4, z+1/2'
   '-y+1/2, -x+1/2, -z'
   'y+1/2, x+1/2, z'
   'y+3/4, -x, z+3/4'
   '-y+1/4, x, -z+1/4'
   '-y, x+1/4, z+1/4'
   'y, -x+3/4, -z+3/4'
   'x+1/4, z+3/4, -y+1/2'
   '-x+3/4, -z+1/4, y+1/2'
   '-x, z+1/4, y+1/4'
   'x, -z+3/4, -y+3/4'
   '-x+1/2, -z+1/2, -y'
   'x+1/2, z+1/2, y'
   'x+3/4, -z, y+3/4'
   '-x+1/4, z, -y+1/4'
   'z+1/4, y+3/4, -x+1/2'
   '-z+3/4, -y+1/4, x+1/2'
   'z+3/4, -y, x+3/4'
   '-z+1/4, y, -x+1/4'
   '-z, y+1/4, x+1/4'
   'z, -y+3/4, -x+3/4'
   '-z+1/2, -y+1/2, -x'
   'z+1/2, y+1/2, x'

loop_
   _atom_site_label
   _atom_site_occupancy
   _atom_site_fract_x
   _atom_site_fract_y
   _atom_site_fract_z
   _atom_site_adp_type
   _atom_site_U_iso_or_equiv
   _atom_site_type_symbol
   Al1        0.8633  0.125000     0.125000     0.125000    Uani  0.006200 Al
   Al2        0.8160  0.500000     0.500000     0.500000    Uani  0.009200 Al
   O1         1.0     0.25673(10)  0.25673(10)  0.25673(10) Uani  0.011100 O
   Al3        0.0280  0.000000     0.000000     0.000000    Uani  0.009000 Al
   Al4        0.0190 -0.123(3)     0.125000     0.125000    Uani  0.005667 Al

loop_
   _atom_site_aniso_label
   _atom_site_aniso_U_11
   _atom_site_aniso_U_22
   _atom_site_aniso_U_33
   _atom_site_aniso_U_12
   _atom_site_aniso_U_13
   _atom_site_aniso_U_23
   Al1	 0.00620  0.00620  0.00620  0.00000  0.00000  0.00000
   Al2	 0.00920  0.00920  0.00920 -0.00008 -0.00008 -0.00008
   O1	 0.01110  0.01110  0.01110  0.00055  0.00055  0.00055
   Al3	 0.00900  0.00900  0.00900  0.00100  0.00100  0.00100
   Al4	 0.00500  0.00600  0.00600  0.00000  0.00000  0.00300
